data_ZrO2
_symmetry_space_group_name_H-M   'P42/nmc'
_cell_length_a                   3.620
_cell_length_b                   3.620
_cell_length_c                   5.170
_cell_angle_alpha                90
_cell_angle_beta                 90
_cell_angle_gamma                90
_symmetry_Int_Tables_number      137

loop_
_symmetry_equiv_pos_as_xyz
'x,y,z'
'-x,-y,z+1/2'
'-x,y,-z'
'x,-y,-z+1/2'

loop_
_atom_site_label
_atom_site_type_symbol
_atom_site_fract_x
_atom_site_fract_y
_atom_site_fract_z
Zr1  Zr  0.0000  0.0000  0.0000
O1   O   0.2760  0.0000  0.5000
O2   O   0.7240  0.5000  0.0000
